
  EPA STORM WATER MANAGEMENT MODEL - VERSION 5.1 (Build 5.3.0.dev0)
  --------------------------------------------------------------

  
  *********************************************************
  NOTE: The summary statistics displayed in this report are
  based on results found at every computational time step,  
  not just on results from each reporting time step.
  *********************************************************
  
  ****************
  Analysis Options
  ****************
  Flow Units ............... CMS
  Process Models:
    Rainfall/Runoff ........ NO
    RDII ................... NO
    Snowmelt ............... NO
    Groundwater ............ NO
    Flow Routing ........... YES
    Ponding Allowed ........ NO
    Water Quality .......... YES
  Flow Routing Method ...... DYNWAVE
  Surcharge Method ......... EXTRAN
  Starting Date ............ 12/05/2019 00:00:00
  Ending Date .............. 12/05/2019 03:00:00
  Antecedent Dry Days ...... 0.0
  Report Time Step ......... 00:05:00
  Routing Time Step ........ 10.00 sec
  Variable Time Step ....... YES
  Maximum Trials ........... 20
  Number of Threads ........ 1
  Head Tolerance ........... 0.001500 m
  
  
  **************************        Volume        Volume
  Flow Routing Continuity        hectare-m      10^6 ltr
  **************************     ---------     ---------
  Dry Weather Inflow .......         0.000         0.000
  Wet Weather Inflow .......         0.000         0.000
  Groundwater Inflow .......         0.000         0.000
  RDII Inflow ..............         0.000         0.000
  External Inflow ..........         2.160        21.597
  External Outflow .........         0.334         3.338
  Flooding Loss ............         1.787        17.871
  Evaporation Loss .........         0.000         0.000
  Exfiltration Loss ........         0.000         0.000
  Initial Stored Volume ....         0.003         0.033
  Final Stored Volume ......         0.055         0.553
  Continuity Error (%) .....        -0.606
  
  
  **************************           COD
  Quality Routing Continuity            kg
  **************************    ----------
  Dry Weather Inflow .......         0.000
  Wet Weather Inflow .......         0.000
  Groundwater Inflow .......         0.000
  RDII Inflow ..............         0.000
  External Inflow ..........         0.000
  External Outflow .........         0.000
  Flooding Loss ............         0.000
  Exfiltration Loss ........         0.000
  Mass Reacted .............         0.000
  Initial Stored Mass ......         0.000
  Final Stored Mass ........         0.000
  Continuity Error (%) .....         0.000
  
  
  *************************
  Highest Continuity Errors
  *************************
  Node M2334097 (-2.93%)
  Node M2323065 (2.66%)
  Node M2341121 (1.63%)
  Node M2323006 (1.38%)
  
  
  ***************************
  Time-Step Critical Elements
  ***************************
  Link L2747 (71.22%)
  Link L2373 (25.20%)
  Link L2374 (1.47%)
  
  
  ********************************
  Highest Flow Instability Indexes
  ********************************
  Link L2377 (29)
  Link L2747 (11)
  Link L2354 (10)
  Link L2373 (8)
  Link L2374 (7)
  
  
  *************************
  Routing Time Step Summary
  *************************
  Minimum Time Step           :     0.50 sec
  Average Time Step           :     1.73 sec
  Maximum Time Step           :    10.00 sec
  Percent in Steady State     :    -0.00
  Average Iterations per Step :     2.37
  Percent Not Converging      :     0.34
  
  
  ******************
  Node Depth Summary
  ******************
  
  ---------------------------------------------------------------------------------
                                 Average  Maximum  Maximum  Time of Max    Reported
                                   Depth    Depth      HGL   Occurrence   Max Depth
  Node                 Type       Meters   Meters   Meters  days hr:min      Meters
  ---------------------------------------------------------------------------------
  M2334098             JUNCTION     0.39     2.00     2.33     0  00:13        0.66
  M2334097             JUNCTION     0.40     1.60     1.91     0  00:13        0.68
  M2334096             JUNCTION     0.33     0.73     1.03     0  00:13        0.56
  M2343123             JUNCTION     0.38     0.68     0.73     0  00:14        0.61
  M2341119             JUNCTION     0.33     0.60     0.53     0  00:15        0.59
  M2341120             JUNCTION     0.31     0.55     0.32     0  01:40        0.54
  M2341121             JUNCTION     0.31     0.56     0.01     0  01:42        0.55
  M2341060             JUNCTION     0.27     0.51    -0.16     0  01:50        0.49
  M2341059             JUNCTION     0.26     0.51    -0.40     0  01:51        0.49
  M2341057             JUNCTION     0.27     0.53    -0.59     0  01:52        0.51
  M2323042             JUNCTION     0.26     0.52    -0.77     0  01:52        0.50
  M2323041             JUNCTION     0.27     0.53    -0.98     0  01:53        0.52
  M2323040             JUNCTION     0.29     0.56    -1.18     0  02:57        0.52
  M2323038             JUNCTION     0.25     0.76    -1.09     0  02:57        0.47
  M2323036             JUNCTION     0.54     1.09    -1.12     0  02:58        0.91
  M2323065             JUNCTION     0.69     1.25    -1.16     0  02:56        1.17
  M2323006             JUNCTION     0.85     1.48    -1.12     0  00:41        1.35
  Renseanlaeg          OUTFALL      0.00     0.00     0.00     0  00:00        0.00
  B2334099PSA256       STORAGE      5.24     5.24     2.80     0  00:00        5.24
  B2323037O398         STORAGE      0.41     1.07    -1.00     0  02:56        0.72
  B2323069             STORAGE      2.03     2.62    -1.17     0  00:41        2.55
  
  
  *******************
  Node Inflow Summary
  *******************
  
  -------------------------------------------------------------------------------------------------
                                  Maximum  Maximum                  Lateral       Total        Flow
                                  Lateral    Total  Time of Max      Inflow      Inflow     Balance
                                   Inflow   Inflow   Occurrence      Volume      Volume       Error
  Node                 Type           CMS      CMS  days hr:min    10^6 ltr    10^6 ltr     Percent
  -------------------------------------------------------------------------------------------------
  M2334098             JUNCTION     0.000    5.806     0  00:13           0        3.78       0.209
  M2334097             JUNCTION     0.000    5.715     0  00:13           0        3.75      -2.848
  M2334096             JUNCTION     0.000    5.576     0  00:13           0        3.81      -0.096
  M2343123             JUNCTION     0.000    1.832     0  00:13           0        3.81       0.455
  M2341119             JUNCTION     0.000    1.538     0  00:14           0        3.79       0.503
  M2341120             JUNCTION     0.000    1.312     0  00:15           0        3.77       0.582
  M2341121             JUNCTION     0.000    1.072     0  00:17           0        3.75       1.660
  M2341060             JUNCTION     0.000    1.025     0  01:50           0        3.69       0.844
  M2341059             JUNCTION     0.000    1.046     0  01:51           0        3.66       0.637
  M2341057             JUNCTION     0.000    1.059     0  01:52           0        3.64       0.410
  M2323042             JUNCTION     0.000    1.076     0  01:52           0        3.62       0.371
  M2323041             JUNCTION     0.000    1.094     0  01:53           0        3.61       0.453
  M2323040             JUNCTION     0.000    1.124     0  01:53           0         3.6       0.733
  M2323038             JUNCTION     0.000    1.110     0  00:40           0        3.69       0.216
  M2323036             JUNCTION     0.000    1.912     0  01:30           0        3.91       0.803
  M2323065             JUNCTION     0.000    1.563     0  01:27           0        3.98       2.734
  M2323006             JUNCTION     0.000    2.394     0  01:50           0        4.46       1.397
  Renseanlaeg          OUTFALL      0.000    1.000     0  00:41           0        3.34       0.000
  B2334099PSA256       STORAGE      2.000    2.000     0  00:00        21.6        21.6      -0.058
  B2323037O398         STORAGE      0.000    1.686     0  02:31           0        3.91       0.176
  B2323069             STORAGE      0.000    2.910     0  01:50           0        4.09      -0.547
  
  
  **********************
  Node Surcharge Summary
  **********************
  
  Surcharging occurs when water rises above the top of the highest conduit.
  ---------------------------------------------------------------------
                                               Max. Height   Min. Depth
                                   Hours       Above Crown    Below Rim
  Node                 Type      Surcharged         Meters       Meters
  ---------------------------------------------------------------------
  M2334098             JUNCTION        0.01          0.400        0.000
  M2334097             JUNCTION        0.01          0.000        0.400
  
  
  *********************
  Node Flooding Summary
  *********************
  
  Flooding refers to all water that overflows a node, whether it ponds or not.
  --------------------------------------------------------------------------
                                                             Total   Maximum
                                 Maximum   Time of Max       Flood    Ponded
                        Hours       Rate    Occurrence      Volume     Depth
  Node                 Flooded       CMS   days hr:min    10^6 ltr    Meters
  --------------------------------------------------------------------------
  M2334098                0.01     2.903      0  00:13       0.029     0.000
  B2334099PSA256          3.00     2.000      0  00:16      17.852     0.000
  
  
  **********************
  Storage Volume Summary
  **********************
  
  --------------------------------------------------------------------------------------------------
                         Average     Avg  Evap Exfil       Maximum     Max    Time of Max    Maximum
                          Volume    Pcnt  Pcnt  Pcnt        Volume    Pcnt     Occurrence    Outflow
  Storage Unit           1000 m3    Full  Loss  Loss       1000 m3    Full    days hr:min        CMS
  --------------------------------------------------------------------------------------------------
  B2334099PSA256           0.034     100     0     0         0.034     100       0  00:00      1.000
  B2323037O398             0.003      14     0     0         0.007      37       0  02:56      1.912
  B2323069                 0.061      36     0     0         0.079      46       0  00:41      2.402
  
  
  ***********************
  Outfall Loading Summary
  ***********************
  
  -------------------------------------------------------------------------
                         Flow       Avg       Max       Total         Total
                         Freq      Flow      Flow      Volume           COD
  Outfall Node           Pcnt       CMS       CMS    10^6 ltr            kg
  -------------------------------------------------------------------------
  Renseanlaeg           38.08     1.000     1.000       3.338         0.000
  -------------------------------------------------------------------------
  System                38.08     1.000     1.000       3.338         0.000
  
  
  ********************
  Link Flow Summary
  ********************
  
  -----------------------------------------------------------------------------
                                 Maximum  Time of Max   Maximum    Max/    Max/
                                  |Flow|   Occurrence   |Veloc|    Full    Full
  Link                 Type          CMS  days hr:min     m/sec    Flow   Depth
  -----------------------------------------------------------------------------
  L2747                CONDUIT     5.715     0  00:13      4.21    0.85    0.94
  L2746                CONDUIT     5.576     0  00:13      4.34    3.65    0.61
  L2745                CONDUIT     1.832     0  00:13      3.30    0.33    0.38
  L2921                CONDUIT     1.538     0  00:14      2.56    0.52    0.40
  L2797                CONDUIT     1.312     0  00:15      2.80    0.32    0.34
  L2798                CONDUIT     1.072     0  00:17      2.22    0.25    0.34
  L2799                CONDUIT     1.025     0  01:50      1.90    0.29    0.33
  L2793                CONDUIT     1.046     0  01:51      2.02    0.21    0.32
  L2792                CONDUIT     1.059     0  01:52      1.99    0.21    0.32
  L2791                CONDUIT     1.076     0  01:52      2.00    0.24    0.33
  L2379                CONDUIT     1.094     0  01:53      2.09    0.22    0.33
  L2378                CONDUIT     1.124     0  01:53      2.02    0.23    0.33
  L2377                CONDUIT     1.110     0  00:40      2.49    0.25    0.40
  L2374                CONDUIT     1.563     0  01:26      3.14    0.13    0.51
  L2373                CONDUIT     1.912     0  01:30      2.82    0.17    0.64
  L6497                CONDUIT     1.563     0  01:27      2.27    0.32    0.69
  L2390                CONDUIT     1.783     0  01:49      2.01    0.37    0.82
  L2354                CONDUIT     2.910     0  01:50      2.77    0.44    0.94
  P1                   PUMP        1.000     0  00:13              1.00
  P2                   PUMP        1.000     0  00:41              1.00
  
  
  ***************************
  Flow Classification Summary
  ***************************
  
  -------------------------------------------------------------------------------------
                      Adjusted    ---------- Fraction of Time in Flow Class ---------- 
                       /Actual         Up    Down  Sub   Sup   Up    Down  Norm  Inlet 
  Conduit               Length    Dry  Dry   Dry   Crit  Crit  Crit  Crit  Ltd   Ctrl  
  -------------------------------------------------------------------------------------
  L2747                   1.00   0.01  0.05  0.00  0.91  0.03  0.00  0.00  0.19  0.00
  L2746                   1.00   0.01  0.00  0.00  0.91  0.08  0.00  0.00  0.26  0.00
  L2745                   1.00   0.01  0.00  0.00  0.86  0.13  0.00  0.00  0.61  0.00
  L2921                   1.00   0.01  0.00  0.00  0.90  0.09  0.00  0.00  0.58  0.00
  L2797                   1.00   0.01  0.00  0.00  0.85  0.13  0.00  0.00  0.61  0.00
  L2798                   1.00   0.01  0.00  0.00  0.89  0.10  0.00  0.00  0.64  0.00
  L2799                   1.00   0.02  0.00  0.00  0.92  0.06  0.00  0.00  0.08  0.00
  L2793                   1.00   0.02  0.00  0.00  0.69  0.29  0.00  0.00  0.66  0.00
  L2792                   1.00   0.03  0.00  0.00  0.84  0.13  0.00  0.00  0.61  0.00
  L2791                   1.00   0.03  0.00  0.00  0.91  0.05  0.00  0.00  0.62  0.00
  L2379                   1.00   0.04  0.00  0.00  0.83  0.13  0.00  0.00  0.68  0.00
  L2378                   1.00   0.05  0.00  0.00  0.88  0.07  0.00  0.00  0.66  0.00
  L2377                   1.00   0.05  0.00  0.00  0.41  0.54  0.00  0.00  0.18  0.00
  L2374                   1.00   0.05  0.00  0.00  0.54  0.41  0.00  0.00  0.17  0.00
  L2373                   1.00   0.06  0.00  0.00  0.69  0.25  0.00  0.00  0.00  0.00
  L6497                   1.00   0.06  0.00  0.00  0.93  0.01  0.00  0.00  0.11  0.00
  L2390                   1.00   0.06  0.00  0.00  0.92  0.02  0.00  0.00  0.04  0.00
  L2354                   1.00   0.06  0.00  0.00  0.90  0.01  0.00  0.02  0.01  0.00
  
  
  *************************
  Conduit Surcharge Summary
  *************************
  
  ----------------------------------------------------------------------------
                                                           Hours        Hours 
                         --------- Hours Full --------   Above Full   Capacity
  Conduit                Both Ends  Upstream  Dnstream   Normal Flow   Limited
  ----------------------------------------------------------------------------
  L2747                       0.01      0.01      0.01      0.01         0.01
  L2746                       0.01      0.01      0.01      0.01         0.01
  
  
  ***************
  Pumping Summary
  ***************
  
  ---------------------------------------------------------------------------------------------------------
                                                  Min       Avg       Max     Total     Power    % Time Off
                        Percent   Number of      Flow      Flow      Flow    Volume     Usage    Pump Curve
  Pump                 Utilized   Start-Ups       CMS       CMS       CMS  10^6 ltr     Kw-hr    Low   High
  ---------------------------------------------------------------------------------------------------------
  P1                      34.64          12      0.00      1.00      1.00     3.741     19.52    0.0  100.0
  P2                      30.89           5      0.00      1.00      1.00     3.336     15.77    0.0  100.0
  
  
  ***************************
  Link Pollutant Load Summary
  ***************************
  
  ----------------------------------
                                 COD
  Link                            kg
  ----------------------------------
  L2747                        0.000
  L2746                        0.000
  L2745                        0.000
  L2921                        0.000
  L2797                        0.000
  L2798                        0.000
  L2799                        0.000
  L2793                        0.000
  L2792                        0.000
  L2791                        0.000
  L2379                        0.000
  L2378                        0.000
  L2377                        0.000
  L2374                        0.000
  L2373                        0.000
  L6497                        0.000
  L2390                        0.000
  L2354                        0.000
  P1                           0.000
  P2                           0.000
  

  Analysis begun on:  Tue Dec  1 13:04:31 2020
  Analysis ended on:  Tue Dec  1 13:04:36 2020
  Total elapsed time: 00:00:05