
  EPA STORM WATER MANAGEMENT MODEL - VERSION 5.1 (Build 5.1.015)
  --------------------------------------------------------------

  
  *********************************************************
  NOTE: The summary statistics displayed in this report are
  based on results found at every computational time step,  
  not just on results from each reporting time step.
  *********************************************************
  
  ****************
  Analysis Options
  ****************
  Flow Units ............... CMS
  Process Models:
    Rainfall/Runoff ........ NO
    RDII ................... NO
    Snowmelt ............... NO
    Groundwater ............ NO
    Flow Routing ........... YES
    Ponding Allowed ........ NO
    Water Quality .......... YES
  Flow Routing Method ...... DYNWAVE
  Surcharge Method ......... EXTRAN
  Starting Date ............ 12/05/2019 00:00:00
  Ending Date .............. 12/05/2019 03:00:00
  Antecedent Dry Days ...... 0.0
  Report Time Step ......... 00:05:00
  Routing Time Step ........ 10.00 sec
  Variable Time Step ....... YES
  Maximum Trials ........... 20
  Number of Threads ........ 1
  Head Tolerance ........... 0.001500 m
  
  
  **************************        Volume        Volume
  Flow Routing Continuity        hectare-m      10^6 ltr
  **************************     ---------     ---------
  Dry Weather Inflow .......         0.000         0.000
  Wet Weather Inflow .......         0.000         0.000
  Groundwater Inflow .......         0.000         0.000
  RDII Inflow ..............         0.000         0.000
  External Inflow ..........         0.000         0.000
  External Outflow .........         0.000         0.000
  Flooding Loss ............         0.000         0.000
  Evaporation Loss .........         0.000         0.000
  Exfiltration Loss ........         0.000         0.000
  Initial Stored Volume ....         0.003         0.033
  Final Stored Volume ......         0.003         0.033
  Continuity Error (%) .....         0.000
  
  
  **************************           COD
  Quality Routing Continuity            kg
  **************************    ----------
  Dry Weather Inflow .......         0.000
  Wet Weather Inflow .......         0.000
  Groundwater Inflow .......         0.000
  RDII Inflow ..............         0.000
  External Inflow ..........         0.000
  External Outflow .........         0.000
  Flooding Loss ............         0.000
  Exfiltration Loss ........         0.000
  Mass Reacted .............         0.000
  Initial Stored Mass ......         0.000
  Final Stored Mass ........         0.000
  Continuity Error (%) .....         0.000
  
  
  ***************************
  Time-Step Critical Elements
  ***************************
  None
  
  
  ********************************
  Highest Flow Instability Indexes
  ********************************
  All links are stable.
  
  
  *************************
  Routing Time Step Summary
  *************************
  Minimum Time Step           :     9.50 sec
  Average Time Step           :     9.99 sec
  Maximum Time Step           :    10.00 sec
  Percent in Steady State     :     0.00
  Average Iterations per Step :     2.00
  Percent Not Converging      :     0.00
  Time Step Frequencies       :
     10.000 -  5.493 sec      :   100.00 %
      5.493 -  3.017 sec      :     0.00 %
      3.017 -  1.657 sec      :     0.00 %
      1.657 -  0.910 sec      :     0.00 %
      0.910 -  0.500 sec      :     0.00 %
  
  
  ******************
  Node Depth Summary
  ******************
  
  ---------------------------------------------------------------------------------
                                 Average  Maximum  Maximum  Time of Max    Reported
                                   Depth    Depth      HGL   Occurrence   Max Depth
  Node                 Type       Meters   Meters   Meters  days hr:min      Meters
  ---------------------------------------------------------------------------------
  M2334098             JUNCTION     0.00     0.00     0.33     0  00:00        0.00
  M2334097             JUNCTION     0.00     0.00     0.31     0  00:00        0.00
  M2334096             JUNCTION     0.00     0.00     0.30     0  00:00        0.00
  M2343123             JUNCTION     0.00     0.00     0.05     0  00:00        0.00
  M2341119             JUNCTION     0.00     0.00    -0.07     0  00:00        0.00
  M2341120             JUNCTION     0.00     0.00    -0.23     0  00:00        0.00
  M2341121             JUNCTION     0.00     0.00    -0.55     0  00:00        0.00
  M2341060             JUNCTION     0.00     0.00    -0.67     0  00:00        0.00
  M2341059             JUNCTION     0.00     0.00    -0.91     0  00:00        0.00
  M2341057             JUNCTION     0.00     0.00    -1.12     0  00:00        0.00
  M2323042             JUNCTION     0.00     0.00    -1.30     0  00:00        0.00
  M2323041             JUNCTION     0.00     0.00    -1.51     0  00:00        0.00
  M2323040             JUNCTION     0.00     0.00    -1.74     0  00:00        0.00
  M2323038             JUNCTION     0.00     0.00    -1.85     0  00:00        0.00
  M2323036             JUNCTION     0.00     0.00    -2.21     0  00:00        0.00
  M2323065             JUNCTION     0.00     0.00    -2.41     0  00:00        0.00
  M2323006             JUNCTION     0.00     0.00    -2.60     0  00:00        0.00
  Renseanlaeg          OUTFALL      0.00     0.00     0.00     0  00:00        0.00
  B2334099PSA256       STORAGE      0.00     0.00    -2.44     0  00:00        0.00
  B2323037O398         STORAGE      0.00     0.00    -2.07     0  00:00        0.00
  B2323069             STORAGE      1.10     1.10    -2.69     0  00:00        1.10
  
  
  *******************
  Node Inflow Summary
  *******************
  
  -------------------------------------------------------------------------------------------------
                                  Maximum  Maximum                  Lateral       Total        Flow
                                  Lateral    Total  Time of Max      Inflow      Inflow     Balance
                                   Inflow   Inflow   Occurrence      Volume      Volume       Error
  Node                 Type           CMS      CMS  days hr:min    10^6 ltr    10^6 ltr     Percent
  -------------------------------------------------------------------------------------------------
  M2334098             JUNCTION     0.000    0.000     0  00:00           0           0       0.000 ltr
  M2334097             JUNCTION     0.000    0.000     0  00:00           0           0       0.000 ltr
  M2334096             JUNCTION     0.000    0.000     0  00:00           0           0       0.000 ltr
  M2343123             JUNCTION     0.000    0.000     0  00:00           0           0       0.000 ltr
  M2341119             JUNCTION     0.000    0.000     0  00:00           0           0       0.000 ltr
  M2341120             JUNCTION     0.000    0.000     0  00:00           0           0       0.000 ltr
  M2341121             JUNCTION     0.000    0.000     0  00:00           0           0       0.000 ltr
  M2341060             JUNCTION     0.000    0.000     0  00:00           0           0       0.000 ltr
  M2341059             JUNCTION     0.000    0.000     0  00:00           0           0       0.000 ltr
  M2341057             JUNCTION     0.000    0.000     0  00:00           0           0       0.000 ltr
  M2323042             JUNCTION     0.000    0.000     0  00:00           0           0       0.000 ltr
  M2323041             JUNCTION     0.000    0.000     0  00:00           0           0       0.000 ltr
  M2323040             JUNCTION     0.000    0.000     0  00:00           0           0       0.000 ltr
  M2323038             JUNCTION     0.000    0.000     0  00:00           0           0       0.000 ltr
  M2323036             JUNCTION     0.000    0.000     0  00:00           0           0       0.000 ltr
  M2323065             JUNCTION     0.000    0.000     0  00:00           0           0       0.000 ltr
  M2323006             JUNCTION     0.000    0.000     0  00:00           0           0       0.000 ltr
  Renseanlaeg          OUTFALL      0.000    0.000     0  00:00           0           0       0.000 ltr
  B2334099PSA256       STORAGE      0.000    0.000     0  00:00           0           0       0.000 ltr
  B2323037O398         STORAGE      0.000    0.000     0  00:00           0           0       0.000 ltr
  B2323069             STORAGE      0.000    0.000     0  00:00           0      0.0329       0.000
  
  
  **********************
  Node Surcharge Summary
  **********************
  
  No nodes were surcharged.
  
  
  *********************
  Node Flooding Summary
  *********************
  
  No nodes were flooded.
  
  
  **********************
  Storage Volume Summary
  **********************
  
  --------------------------------------------------------------------------------------------------
                         Average     Avg  Evap Exfil       Maximum     Max    Time of Max    Maximum
                          Volume    Pcnt  Pcnt  Pcnt        Volume    Pcnt     Occurrence    Outflow
  Storage Unit           1000 m3    Full  Loss  Loss       1000 m3    Full    days hr:min        CMS
  --------------------------------------------------------------------------------------------------
  B2334099PSA256           0.000       0     0     0         0.000       0       0  00:00      0.000
  B2323037O398             0.000       0     0     0         0.000       0       0  00:00      0.000
  B2323069                 0.033      19     0     0         0.033      19       0  00:00      0.000
  
  
  ***********************
  Outfall Loading Summary
  ***********************
  
  -------------------------------------------------------------------------
                         Flow       Avg       Max       Total         Total
                         Freq      Flow      Flow      Volume           COD
  Outfall Node           Pcnt       CMS       CMS    10^6 ltr            kg
  -------------------------------------------------------------------------
  Renseanlaeg            0.00     0.000     0.000       0.000         0.000
  -------------------------------------------------------------------------
  System                 0.00     0.000     0.000       0.000         0.000
  
  
  ********************
  Link Flow Summary
  ********************
  
  -----------------------------------------------------------------------------
                                 Maximum  Time of Max   Maximum    Max/    Max/
                                  |Flow|   Occurrence   |Veloc|    Full    Full
  Link                 Type          CMS  days hr:min     m/sec    Flow   Depth
  -----------------------------------------------------------------------------
  L2747                CONDUIT     0.000     0  00:00      0.00    0.00    0.00
  L2746                CONDUIT     0.000     0  00:00      0.00    0.00    0.00
  L2745                CONDUIT     0.000     0  00:00      0.00    0.00    0.00
  L2921                CONDUIT     0.000     0  00:00      0.00    0.00    0.00
  L2797                CONDUIT     0.000     0  00:00      0.00    0.00    0.00
  L2798                CONDUIT     0.000     0  00:00      0.00    0.00    0.00
  L2799                CONDUIT     0.000     0  00:00      0.00    0.00    0.00
  L2793                CONDUIT     0.000     0  00:00      0.00    0.00    0.00
  L2792                CONDUIT     0.000     0  00:00      0.00    0.00    0.00
  L2791                CONDUIT     0.000     0  00:00      0.00    0.00    0.00
  L2379                CONDUIT     0.000     0  00:00      0.00    0.00    0.00
  L2378                CONDUIT     0.000     0  00:00      0.00    0.00    0.00
  L2377                CONDUIT     0.000     0  00:00      0.00    0.00    0.00
  L2374                CONDUIT     0.000     0  00:00      0.00    0.00    0.00
  L2373                CONDUIT     0.000     0  00:00      0.00    0.00    0.00
  L6497                CONDUIT     0.000     0  00:00      0.00    0.00    0.00
  L2390                CONDUIT     0.000     0  00:00      0.00    0.00    0.00
  L2354                CONDUIT     0.000     0  00:00      0.00    0.00    0.00
  P1                   PUMP        0.000     0  00:00              0.00
  P2                   PUMP        0.000     0  00:00              0.00
  
  
  ***************************
  Flow Classification Summary
  ***************************
  
  -------------------------------------------------------------------------------------
                      Adjusted    ---------- Fraction of Time in Flow Class ---------- 
                       /Actual         Up    Down  Sub   Sup   Up    Down  Norm  Inlet 
  Conduit               Length    Dry  Dry   Dry   Crit  Crit  Crit  Crit  Ltd   Ctrl  
  -------------------------------------------------------------------------------------
  L2747                   1.00   1.00  0.00  0.00  0.00  0.00  0.00  0.00  0.00  0.00
  L2746                   1.00   1.00  0.00  0.00  0.00  0.00  0.00  0.00  0.00  0.00
  L2745                   1.00   1.00  0.00  0.00  0.00  0.00  0.00  0.00  0.00  0.00
  L2921                   1.00   1.00  0.00  0.00  0.00  0.00  0.00  0.00  0.00  0.00
  L2797                   1.00   1.00  0.00  0.00  0.00  0.00  0.00  0.00  0.00  0.00
  L2798                   1.00   1.00  0.00  0.00  0.00  0.00  0.00  0.00  0.00  0.00
  L2799                   1.00   1.00  0.00  0.00  0.00  0.00  0.00  0.00  0.00  0.00
  L2793                   1.00   1.00  0.00  0.00  0.00  0.00  0.00  0.00  0.00  0.00
  L2792                   1.00   1.00  0.00  0.00  0.00  0.00  0.00  0.00  0.00  0.00
  L2791                   1.00   1.00  0.00  0.00  0.00  0.00  0.00  0.00  0.00  0.00
  L2379                   1.00   1.00  0.00  0.00  0.00  0.00  0.00  0.00  0.00  0.00
  L2378                   1.00   1.00  0.00  0.00  0.00  0.00  0.00  0.00  0.00  0.00
  L2377                   1.00   1.00  0.00  0.00  0.00  0.00  0.00  0.00  0.00  0.00
  L2374                   1.00   1.00  0.00  0.00  0.00  0.00  0.00  0.00  0.00  0.00
  L2373                   1.00   1.00  0.00  0.00  0.00  0.00  0.00  0.00  0.00  0.00
  L6497                   1.00   1.00  0.00  0.00  0.00  0.00  0.00  0.00  0.00  0.00
  L2390                   1.00   1.00  0.00  0.00  0.00  0.00  0.00  0.00  0.00  0.00
  L2354                   1.00   1.00  0.00  0.00  0.00  0.00  0.00  0.00  0.00  0.00
  
  
  *************************
  Conduit Surcharge Summary
  *************************
  
  No conduits were surcharged.
  
  
  ***************
  Pumping Summary
  ***************
  
  ---------------------------------------------------------------------------------------------------------
                                                  Min       Avg       Max     Total     Power    % Time Off
                        Percent   Number of      Flow      Flow      Flow    Volume     Usage    Pump Curve
  Pump                 Utilized   Start-Ups       CMS       CMS       CMS  10^6 ltr     Kw-hr    Low   High
  ---------------------------------------------------------------------------------------------------------
  P1                       0.00           0      0.00      0.00      0.00     0.000      0.00    0.0    0.0
  P2                       0.00           0      0.00      0.00      0.00     0.000      0.00    0.0    0.0
  
  
  ***************************
  Link Pollutant Load Summary
  ***************************
  
  ----------------------------------
                                 COD
  Link                            kg
  ----------------------------------
  L2747                        0.000
  L2746                        0.000
  L2745                        0.000
  L2921                        0.000
  L2797                        0.000
  L2798                        0.000
  L2799                        0.000
  L2793                        0.000
  L2792                        0.000
  L2791                        0.000
  L2379                        0.000
  L2378                        0.000
  L2377                        0.000
  L2374                        0.000
  L2373                        0.000
  L6497                        0.000
  L2390                        0.000
  L2354                        0.000
  P1                           0.000
  P2                           0.000
  

  Analysis begun on:  Thu Nov 26 09:57:41 2020
  Analysis ended on:  Thu Nov 26 09:57:41 2020
  Total elapsed time: < 1 sec