
  EPA STORM WATER MANAGEMENT MODEL - VERSION 5.1 (Build 5.3.0.dev0)
  --------------------------------------------------------------

  
  *********************************************************
  NOTE: The summary statistics displayed in this report are
  based on results found at every computational time step,  
  not just on results from each reporting time step.
  *********************************************************
  
  ****************
  Analysis Options
  ****************
  Flow Units ............... CMS
  Process Models:
    Rainfall/Runoff ........ NO
    RDII ................... NO
    Snowmelt ............... NO
    Groundwater ............ NO
    Flow Routing ........... YES
    Ponding Allowed ........ NO
    Water Quality .......... NO
  Flow Routing Method ...... KINWAVE
  Starting Date ............ 05/02/2020 00:00:00
  Ending Date .............. 05/02/2020 06:00:00
  Antecedent Dry Days ...... 0.0
  Report Time Step ......... 00:01:00
  Routing Time Step ........ 30.00 sec
  
  
  **************************        Volume        Volume
  Flow Routing Continuity        hectare-m      10^6 ltr
  **************************     ---------     ---------
  Dry Weather Inflow .......         0.000         0.000
  Wet Weather Inflow .......         0.000         0.000
  Groundwater Inflow .......         0.000         0.000
  RDII Inflow ..............         0.000         0.000
  External Inflow ..........         0.000         0.000
  External Outflow .........         0.000         0.000
  Flooding Loss ............        10.712       107.124
  Evaporation Loss .........         0.000         0.000
  Exfiltration Loss ........         0.000         0.000
  Initial Stored Volume ....        95.027       950.279
  Final Stored Volume ......        84.320       843.209
  Continuity Error (%) .....        -0.006
  
  
  ********************************
  Highest Flow Instability Indexes
  ********************************
  Link P3 (29)
  Link P2 (28)
  Link P4 (24)
  Link P1 (17)
  Link FP1 (6)
  
  
  *************************
  Routing Time Step Summary
  *************************
  Minimum Time Step           :    30.00 sec
  Average Time Step           :    30.00 sec
  Maximum Time Step           :    30.00 sec
  Percent in Steady State     :     0.00
  Average Iterations per Step :     2.60
  Percent Not Converging      :     0.00
  
  
  ******************
  Node Depth Summary
  ******************
  
  ---------------------------------------------------------------------------------
                                 Average  Maximum  Maximum  Time of Max    Reported
                                   Depth    Depth      HGL   Occurrence   Max Depth
  Node                 Type       Meters   Meters   Meters  days hr:min      Meters
  ---------------------------------------------------------------------------------
  N1                   JUNCTION     0.36     0.59    20.59     0  04:41        0.59
  N2                   JUNCTION     0.37     0.74    18.74     0  00:07        0.74
  N3                   JUNCTION     0.37     0.66    16.66     0  00:08        0.66
  N4                   JUNCTION     0.37     0.62    14.62     0  00:09        0.60
  out                  OUTFALL      0.00     0.00     0.00     0  00:00        0.00
  T1                   STORAGE      3.00     3.00     3.00     0  00:19        3.00
  T2                   STORAGE      1.95     2.00    11.00     0  00:30        2.00
  T3                   STORAGE    896.12   949.99   949.99     0  00:00      949.90
  
  
  *******************
  Node Inflow Summary
  *******************
  
  -------------------------------------------------------------------------------------------------
                                  Maximum  Maximum                  Lateral       Total        Flow
                                  Lateral    Total  Time of Max      Inflow      Inflow     Balance
                                   Inflow   Inflow   Occurrence      Volume      Volume       Error
  Node                 Type           CMS      CMS  days hr:min    10^6 ltr    10^6 ltr     Percent
  -------------------------------------------------------------------------------------------------
  N1                   JUNCTION     0.000    1.445     0  04:41           0          15      -0.000
  N2                   JUNCTION     0.000    1.987     0  00:07           0          15      -0.000
  N3                   JUNCTION     0.000    1.687     0  00:08           0          15       0.000
  N4                   JUNCTION     0.000    1.547     0  00:09           0        14.9       0.000
  out                  OUTFALL      0.000    0.000     0  00:00           0           0       0.000 ltr
  T1                   STORAGE      0.000    5.000     0  00:01           0         108       0.054
  T2                   STORAGE      0.000    1.470     0  00:10           0        14.9       0.031
  T3                   STORAGE      0.000    0.000     0  00:00           0         950       0.000
  
  
  *********************
  Node Flooding Summary
  *********************
  
  Flooding refers to all water that overflows a node, whether it ponds or not.
  --------------------------------------------------------------------------
                                                             Total   Maximum
                                 Maximum   Time of Max       Flood    Ponded
                        Hours       Rate    Occurrence      Volume    Volume
  Node                 Flooded       CMS   days hr:min    10^6 ltr   1000 m3
  --------------------------------------------------------------------------
  T1                      5.98     4.997      0  00:08      92.708     0.000
  T2                      5.80     1.418      0  04:49      14.479     0.000
  
  
  **********************
  Storage Volume Summary
  **********************
  
  --------------------------------------------------------------------------------------------------
                         Average     Avg  Evap Exfil       Maximum     Max    Time of Max    Maximum
                          Volume    Pcnt  Pcnt  Pcnt        Volume    Pcnt     Occurrence    Outflow
  Storage Unit           1000 m3    Full  Loss  Loss       1000 m3    Full    days hr:min        CMS
  --------------------------------------------------------------------------------------------------
  T1                       0.450     100     0     0         0.450     100       0  00:01      1.445
  T2                       0.389      97     0     0         0.400     100       0  00:12      0.000
  T3                     896.120      90     0     0       949.985      95       0  00:00      5.000
  
  
  ***********************
  Outfall Loading Summary
  ***********************
  
  -----------------------------------------------------------
                         Flow       Avg       Max       Total
                         Freq      Flow      Flow      Volume
  Outfall Node           Pcnt       CMS       CMS    10^6 ltr
  -----------------------------------------------------------
  out                    0.00     0.000     0.000       0.000
  -----------------------------------------------------------
  System                 0.00     0.000     0.000       0.000
  
  
  ********************
  Link Flow Summary
  ********************
  
  -----------------------------------------------------------------------------
                                 Maximum  Time of Max   Maximum    Max/    Max/
                                  |Flow|   Occurrence   |Veloc|    Full    Full
  Link                 Type          CMS  days hr:min     m/sec    Flow   Depth
  -----------------------------------------------------------------------------
  P1                   CONDUIT     1.987     0  00:07      7.10    0.90    0.59
  P2                   CONDUIT     1.687     0  00:08      6.14    0.77    0.63
  P3                   CONDUIT     1.547     0  00:09      4.97    0.70    0.60
  P4                   CONDUIT     1.470     0  00:10      4.58    0.42    0.45
  FP1                  PUMP        1.445     0  04:41              1.44
  FP2                  PUMP        0.000     0  00:00              0.00
  FP3                  PUMP        5.000     0  00:01              5.00
  
  
  *************************
  Conduit Surcharge Summary
  *************************
  
  No conduits were surcharged.
  
  
  ***************
  Pumping Summary
  ***************
  
  ---------------------------------------------------------------------------------------------------------
                                                  Min       Avg       Max     Total     Power    % Time Off
                        Percent   Number of      Flow      Flow      Flow    Volume     Usage    Pump Curve
  Pump                 Utilized   Start-Ups       CMS       CMS       CMS  10^6 ltr     Kw-hr    Low   High
  ---------------------------------------------------------------------------------------------------------
  FP1                    100.00           1      0.00      0.70      1.44    15.027    714.57    0.0  100.0
  FP2                      0.00           0      0.00      0.00      0.00     0.000      0.00    0.0    0.0
  FP3                    100.00           1      0.00      4.99      5.00   107.869 262302.48    0.0  100.0
  

  Analysis begun on:  Wed Sep 23 13:50:32 2020
  Analysis ended on:  Wed Sep 23 13:50:33 2020
  Total elapsed time: 00:00:01