
  EPA STORM WATER MANAGEMENT MODEL - VERSION 5.1 (Build 5.3.0.dev0)
  --------------------------------------------------------------

  
  *********************************************************
  NOTE: The summary statistics displayed in this report are
  based on results found at every computational time step,  
  not just on results from each reporting time step.
  *********************************************************
  
  ****************
  Analysis Options
  ****************
  Flow Units ............... CMS
  Process Models:
    Rainfall/Runoff ........ NO
    RDII ................... NO
    Snowmelt ............... NO
    Groundwater ............ NO
    Flow Routing ........... YES
    Ponding Allowed ........ NO
    Water Quality .......... NO
  Flow Routing Method ...... DYNWAVE
  Surcharge Method ......... EXTRAN
  Starting Date ............ 05/02/2020 00:00:00
  Ending Date .............. 05/02/2020 06:00:00
  Antecedent Dry Days ...... 0.0
  Report Time Step ......... 00:01:00
  Routing Time Step ........ 30.00 sec
  Variable Time Step ....... YES
  Maximum Trials ........... 8
  Number of Threads ........ 1
  Head Tolerance ........... 0.001500 m
  
  
  **************************        Volume        Volume
  Flow Routing Continuity        hectare-m      10^6 ltr
  **************************     ---------     ---------
  Dry Weather Inflow .......         0.000         0.000
  Wet Weather Inflow .......         0.000         0.000
  Groundwater Inflow .......         0.000         0.000
  RDII Inflow ..............         0.000         0.000
  External Inflow ..........         0.000         0.000
  External Outflow .........         0.184         1.839
  Flooding Loss ............        10.571       105.711
  Evaporation Loss .........         0.000         0.000
  Exfiltration Loss ........         0.000         0.000
  Initial Stored Volume ....        95.047       950.479
  Final Stored Volume ......        84.290       842.911
  Continuity Error (%) .....         0.002
  
  
  *************************
  Highest Continuity Errors
  *************************
  Node N4 (1.70%)
  Node N3 (1.19%)
  Node N2 (1.07%)
  
  
  ***************************
  Time-Step Critical Elements
  ***************************
  None
  
  
  ********************************
  Highest Flow Instability Indexes
  ********************************
  All links are stable.
  
  
  *************************
  Routing Time Step Summary
  *************************
  Minimum Time Step           :    29.50 sec
  Average Time Step           :    29.96 sec
  Maximum Time Step           :    30.00 sec
  Percent in Steady State     :     0.00
  Average Iterations per Step :     2.08
  Percent Not Converging      :     0.14
  
  
  ******************
  Node Depth Summary
  ******************
  
  ---------------------------------------------------------------------------------
                                 Average  Maximum  Maximum  Time of Max    Reported
                                   Depth    Depth      HGL   Occurrence   Max Depth
  Node                 Type       Meters   Meters   Meters  days hr:min      Meters
  ---------------------------------------------------------------------------------
  N1                   JUNCTION     0.17     0.28    20.28     0  03:55        0.28
  N2                   JUNCTION     0.17     0.26    18.26     0  01:33        0.26
  N3                   JUNCTION     0.17     0.26    16.26     0  05:48        0.26
  N4                   JUNCTION     0.17     0.25    14.25     0  05:51        0.25
  out                  OUTFALL      0.00     0.00     0.00     0  00:00        0.00
  T1                   STORAGE      3.00     3.00     3.00     0  00:01        3.00
  T2                   STORAGE      1.25     1.51    12.51     0  05:38        1.51
  T3                   STORAGE    896.19   950.00   950.00     0  00:00      949.88
  
  
  *******************
  Node Inflow Summary
  *******************
  
  -------------------------------------------------------------------------------------------------
                                  Maximum  Maximum                  Lateral       Total        Flow
                                  Lateral    Total  Time of Max      Inflow      Inflow     Balance
                                   Inflow   Inflow   Occurrence      Volume      Volume       Error
  Node                 Type           CMS      CMS  days hr:min    10^6 ltr    10^6 ltr     Percent
  -------------------------------------------------------------------------------------------------
  N1                   JUNCTION     0.000    0.195     0  05:39           0        1.99       0.267
  N2                   JUNCTION     0.000    0.198     0  03:57           0        1.99       1.080
  N3                   JUNCTION     0.000    0.187     0  05:47           0        1.97       1.203
  N4                   JUNCTION     0.000    0.181     0  05:49           0        1.94       1.732
  out                  OUTFALL      0.000    0.200     0  00:42           0        1.84       0.000
  T1                   STORAGE      0.000    5.000     0  00:01           0         108       0.027
  T2                   STORAGE      0.000    0.175     0  05:52           0        2.11       0.797
  T3                   STORAGE      0.000    0.000     0  00:00           0         950      -0.001
  
  
  **********************
  Node Surcharge Summary
  **********************
  
  No nodes were surcharged.
  
  
  *********************
  Node Flooding Summary
  *********************
  
  Flooding refers to all water that overflows a node, whether it ponds or not.
  --------------------------------------------------------------------------
                                                             Total   Maximum
                                 Maximum   Time of Max       Flood    Ponded
                        Hours       Rate    Occurrence      Volume     Depth
  Node                 Flooded       CMS   days hr:min    10^6 ltr    Meters
  --------------------------------------------------------------------------
  T1                      5.99     4.999      0  00:54     105.784     0.000
  
  
  **********************
  Storage Volume Summary
  **********************
  
  --------------------------------------------------------------------------------------------------
                         Average     Avg  Evap Exfil       Maximum     Max    Time of Max    Maximum
                          Volume    Pcnt  Pcnt  Pcnt        Volume    Pcnt     Occurrence    Outflow
  Storage Unit           1000 m3    Full  Loss  Loss       1000 m3    Full    days hr:min        CMS
  --------------------------------------------------------------------------------------------------
  T1                       0.450     100     0     0         0.450     100       0  00:01      0.195
  T2                       0.251      63     0     0         0.302      76       0  05:38      0.200
  T3                     896.185      90     0     0       950.000      95       0  00:00      5.000
  
  
  ***********************
  Outfall Loading Summary
  ***********************
  
  -----------------------------------------------------------
                         Flow       Avg       Max       Total
                         Freq      Flow      Flow      Volume
  Outfall Node           Pcnt       CMS       CMS    10^6 ltr
  -----------------------------------------------------------
  out                   42.58     0.200     0.200       1.839
  -----------------------------------------------------------
  System                42.58     0.200     0.200       1.839
  
  
  ********************
  Link Flow Summary
  ********************
  
  -----------------------------------------------------------------------------
                                 Maximum  Time of Max   Maximum    Max/    Max/
                                  |Flow|   Occurrence   |Veloc|    Full    Full
  Link                 Type          CMS  days hr:min     m/sec    Flow   Depth
  -----------------------------------------------------------------------------
  P1                   CONDUIT     0.198     0  03:57      3.85    0.57    0.53
  P2                   CONDUIT     0.187     0  05:47      1.95    0.54    0.52
  P3                   CONDUIT     0.181     0  05:49      1.97    0.52    0.51
  P4                   CONDUIT     0.175     0  05:52      1.66    0.50    0.70
  FP1                  PUMP        0.195     0  05:39              0.20
  FP2                  PUMP        0.200     0  00:42              0.20
  FP3                  PUMP        5.000     0  00:01              5.00
  
  
  ***************************
  Flow Classification Summary
  ***************************
  
  -------------------------------------------------------------------------------------
                      Adjusted    ---------- Fraction of Time in Flow Class ---------- 
                       /Actual         Up    Down  Sub   Sup   Up    Down  Norm  Inlet 
  Conduit               Length    Dry  Dry   Dry   Crit  Crit  Crit  Crit  Ltd   Ctrl  
  -------------------------------------------------------------------------------------
  P1                      1.00   0.00  0.00  0.00  0.18  0.82  0.00  0.00  0.59  0.00
  P2                      1.00   0.00  0.00  0.00  0.04  0.96  0.00  0.00  0.54  0.00
  P3                      1.00   0.00  0.00  0.00  0.01  0.99  0.00  0.00  0.51  0.00
  P4                      1.00   0.00  0.00  0.00  0.56  0.14  0.00  0.30  0.67  0.00
  
  
  *************************
  Conduit Surcharge Summary
  *************************
  
  ----------------------------------------------------------------------------
                                                           Hours        Hours 
                         --------- Hours Full --------   Above Full   Capacity
  Conduit                Both Ends  Upstream  Dnstream   Normal Flow   Limited
  ----------------------------------------------------------------------------
  P4                          0.01      0.01      0.13      0.01         0.01
  
  
  ***************
  Pumping Summary
  ***************
  
  ---------------------------------------------------------------------------------------------------------
                                                  Min       Avg       Max     Total     Power    % Time Off
                        Percent   Number of      Flow      Flow      Flow    Volume     Usage    Pump Curve
  Pump                 Utilized   Start-Ups       CMS       CMS       CMS  10^6 ltr     Kw-hr    Low   High
  ---------------------------------------------------------------------------------------------------------
  FP1                     99.86           1      0.00      0.09      0.20     1.993     93.34    0.0  100.0
  FP2                     42.64           7      0.00      0.20      0.20     1.842     61.64    0.0  100.0
  FP3                    100.00           1      0.00      4.99      5.00   107.867 262295.11    0.0  100.0
  

  Analysis begun on:  Mon Nov 23 10:42:50 2020
  Analysis ended on:  Mon Nov 23 10:42:51 2020
  Total elapsed time: 00:00:01