
  EPA STORM WATER MANAGEMENT MODEL - VERSION 5.1 (Build 5.3.0.dev0)
  --------------------------------------------------------------

  
  *********************************************************
  NOTE: The summary statistics displayed in this report are
  based on results found at every computational time step,  
  not just on results from each reporting time step.
  *********************************************************
  
  ****************
  Analysis Options
  ****************
  Flow Units ............... CMS
  Process Models:
    Rainfall/Runoff ........ NO
    RDII ................... NO
    Snowmelt ............... NO
    Groundwater ............ NO
    Flow Routing ........... YES
    Ponding Allowed ........ NO
    Water Quality .......... NO
  Flow Routing Method ...... DYNWAVE
  Surcharge Method ......... EXTRAN
  Starting Date ............ 05/02/2020 00:00:00
  Ending Date .............. 05/02/2020 18:00:00
  Antecedent Dry Days ...... 0.0
  Report Time Step ......... 00:01:00
  Routing Time Step ........ 30.00 sec
  Variable Time Step ....... YES
  Maximum Trials ........... 8
  Number of Threads ........ 1
  Head Tolerance ........... 0.001500 m
  
  
  **************************        Volume        Volume
  Flow Routing Continuity        hectare-m      10^6 ltr
  **************************     ---------     ---------
  Dry Weather Inflow .......         0.000         0.000
  Wet Weather Inflow .......         0.000         0.000
  Groundwater Inflow .......         0.000         0.000
  RDII Inflow ..............         0.000         0.000
  External Inflow ..........         0.000         0.000
  External Outflow .........         1.154        11.539
  Flooding Loss ............        31.177       311.775
  Evaporation Loss .........         0.000         0.000
  Exfiltration Loss ........         0.000         0.000
  Initial Stored Volume ....        95.027       950.279
  Final Stored Volume ......        62.698       626.991
  Continuity Error (%) .....        -0.003
  
  
  ***************************
  Time-Step Critical Elements
  ***************************
  None
  
  
  ********************************
  Highest Flow Instability Indexes
  ********************************
  All links are stable.
  
  
  *************************
  Routing Time Step Summary
  *************************
  Minimum Time Step           :    29.50 sec
  Average Time Step           :    29.99 sec
  Maximum Time Step           :    30.00 sec
  Percent in Steady State     :     0.00
  Average Iterations per Step :     2.18
  Percent Not Converging      :     0.05
  
  
  ******************
  Node Depth Summary
  ******************
  
  ---------------------------------------------------------------------------------
                                 Average  Maximum  Maximum  Time of Max    Reported
                                   Depth    Depth      HGL   Occurrence   Max Depth
  Node                 Type       Meters   Meters   Meters  days hr:min      Meters
  ---------------------------------------------------------------------------------
  N1                   JUNCTION     0.26     0.47    20.47     0  00:43        0.47
  N2                   JUNCTION     0.26     0.44    18.44     0  00:48        0.44
  N3                   JUNCTION     0.26     0.42    16.42     0  16:48        0.42
  N4                   JUNCTION     0.26     0.38    14.38     0  16:51        0.38
  out                  OUTFALL      0.00     0.00     0.00     0  00:00        0.00
  T1                   STORAGE      3.00     3.00     3.00     0  00:01        3.00
  T2                   STORAGE      0.54     1.00    12.00     0  04:57        1.00
  T3                   STORAGE    788.20   950.00   950.00     0  00:00      949.88
  
  
  *******************
  Node Inflow Summary
  *******************
  
  -------------------------------------------------------------------------------------------------
                                  Maximum  Maximum                  Lateral       Total        Flow
                                  Lateral    Total  Time of Max      Inflow      Inflow     Balance
                                   Inflow   Inflow   Occurrence      Volume      Volume       Error
  Node                 Type           CMS      CMS  days hr:min    10^6 ltr    10^6 ltr     Percent
  -------------------------------------------------------------------------------------------------
  N1                   JUNCTION     0.000    0.370     0  00:38           0        12.1       0.402
  N2                   JUNCTION     0.000    0.369     0  00:46           0        12.1       0.329
  N3                   JUNCTION     0.000    0.361     0  00:49           0          12       0.378
  N4                   JUNCTION     0.000    0.346     0  16:48           0          12       0.518
  out                  OUTFALL      0.000    0.185     0  00:27           0        11.5       0.000
  T1                   STORAGE      0.000    5.000     0  00:01           0         324       0.008
  T2                   STORAGE      0.000    0.320     0  16:51           0        11.9      -0.089
  T3                   STORAGE      0.000    0.000     0  00:00           0         950      -0.004
  
  
  **********************
  Node Surcharge Summary
  **********************
  
  No nodes were surcharged.
  
  
  *********************
  Node Flooding Summary
  *********************
  
  Flooding refers to all water that overflows a node, whether it ponds or not.
  --------------------------------------------------------------------------
                                                             Total   Maximum
                                 Maximum   Time of Max       Flood    Ponded
                        Hours       Rate    Occurrence      Volume     Depth
  Node                 Flooded       CMS   days hr:min    10^6 ltr    Meters
  --------------------------------------------------------------------------
  T1                     17.99     4.998      0  03:19     311.620     0.000
  T2                      1.22     0.087      0  17:41       0.224     0.000
  
  
  **********************
  Storage Volume Summary
  **********************
  
  --------------------------------------------------------------------------------------------------
                         Average     Avg  Evap Exfil       Maximum     Max    Time of Max    Maximum
                          Volume    Pcnt  Pcnt  Pcnt        Volume    Pcnt     Occurrence    Outflow
  Storage Unit           1000 m3    Full  Loss  Loss       1000 m3    Full    days hr:min        CMS
  --------------------------------------------------------------------------------------------------
  T1                       0.450     100     0     0         0.450     100       0  00:01      0.370
  T2                       0.107      54     0     0         0.200     100       0  04:57      0.185
  T3                     788.198      79     0     0       950.000      95       0  00:00      5.000
  
  
  ***********************
  Outfall Loading Summary
  ***********************
  
  -----------------------------------------------------------
                         Flow       Avg       Max       Total
                         Freq      Flow      Flow      Volume
  Outfall Node           Pcnt       CMS       CMS    10^6 ltr
  -----------------------------------------------------------
  out                   99.26     0.179     0.185      11.539
  -----------------------------------------------------------
  System                99.26     0.179     0.185      11.539
  
  
  ********************
  Link Flow Summary
  ********************
  
  -----------------------------------------------------------------------------
                                 Maximum  Time of Max   Maximum    Max/    Max/
                                  |Flow|   Occurrence   |Veloc|    Full    Full
  Link                 Type          CMS  days hr:min     m/sec    Flow   Depth
  -----------------------------------------------------------------------------
  P1                   CONDUIT     0.369     0  00:46      3.96    1.06    0.88
  P2                   CONDUIT     0.361     0  00:49      2.14    1.04    0.84
  P3                   CONDUIT     0.346     0  16:48      2.19    1.00    0.78
  P4                   CONDUIT     0.320     0  16:51      2.01    0.92    0.76
  FP1                  PUMP        0.370     0  00:38              0.37
  FP2                  PUMP        0.185     0  00:27              0.19
  FP3                  PUMP        5.000     0  00:01              5.00
  
  
  ***************************
  Flow Classification Summary
  ***************************
  
  -------------------------------------------------------------------------------------
                      Adjusted    ---------- Fraction of Time in Flow Class ---------- 
                       /Actual         Up    Down  Sub   Sup   Up    Down  Norm  Inlet 
  Conduit               Length    Dry  Dry   Dry   Crit  Crit  Crit  Crit  Ltd   Ctrl  
  -------------------------------------------------------------------------------------
  P1                      1.00   0.00  0.00  0.00  0.13  0.87  0.00  0.00  0.52  0.00
  P2                      1.00   0.00  0.00  0.00  0.02  0.98  0.00  0.00  0.53  0.00
  P3                      1.00   0.00  0.00  0.00  0.00  0.99  0.00  0.00  0.50  0.00
  P4                      1.00   0.00  0.00  0.00  0.00  0.00  0.00  1.00  0.00  0.00
  
  
  *************************
  Conduit Surcharge Summary
  *************************
  
  ----------------------------------------------------------------------------
                                                           Hours        Hours 
                         --------- Hours Full --------   Above Full   Capacity
  Conduit                Both Ends  Upstream  Dnstream   Normal Flow   Limited
  ----------------------------------------------------------------------------
  P1                          0.01      0.01      0.01      0.44         0.01
  P2                          0.01      0.01      0.01      0.13         0.01
  
  
  ***************
  Pumping Summary
  ***************
  
  ---------------------------------------------------------------------------------------------------------
                                                  Min       Avg       Max     Total     Power    % Time Off
                        Percent   Number of      Flow      Flow      Flow    Volume     Usage    Pump Curve
  Pump                 Utilized   Start-Ups       CMS       CMS       CMS  10^6 ltr     Kw-hr    Low   High
  ---------------------------------------------------------------------------------------------------------
  FP1                     99.95           1      0.00      0.19      0.37    12.138    572.03    0.0  100.0
  FP2                     99.30           1      0.00      0.18      0.19    11.542    363.19    0.0   92.2
  FP3                    100.00           1      0.00      5.00      5.00   323.844 692256.54    0.0  100.0
  

  Analysis begun on:  Mon Oct  5 09:29:02 2020
  Analysis ended on:  Mon Oct  5 09:29:04 2020
  Total elapsed time: 00:00:02