
  EPA STORM WATER MANAGEMENT MODEL - VERSION 5.1 (Build 5.3.0.dev0)
  --------------------------------------------------------------

  
  *********************************************************
  NOTE: The summary statistics displayed in this report are
  based on results found at every computational time step,  
  not just on results from each reporting time step.
  *********************************************************
  
  ****************
  Analysis Options
  ****************
  Flow Units ............... CMS
  Process Models:
    Rainfall/Runoff ........ NO
    RDII ................... NO
    Snowmelt ............... NO
    Groundwater ............ NO
    Flow Routing ........... YES
    Ponding Allowed ........ NO
    Water Quality .......... NO
  Flow Routing Method ...... DYNWAVE
  Surcharge Method ......... EXTRAN
  Starting Date ............ 05/02/2020 00:00:00
  Ending Date .............. 05/02/2020 06:00:00
  Antecedent Dry Days ...... 0.0
  Report Time Step ......... 00:01:00
  Routing Time Step ........ 30.00 sec
  Variable Time Step ....... YES
  Maximum Trials ........... 8
  Number of Threads ........ 1
  Head Tolerance ........... 0.001500 m
  
  
  **************************        Volume        Volume
  Flow Routing Continuity        hectare-m      10^6 ltr
  **************************     ---------     ---------
  Dry Weather Inflow .......         0.000         0.000
  Wet Weather Inflow .......         0.000         0.000
  Groundwater Inflow .......         0.000         0.000
  RDII Inflow ..............         0.000         0.000
  External Inflow ..........         0.000         0.000
  External Outflow .........         0.000         0.000
  Flooding Loss ............        10.727       107.273
  Evaporation Loss .........         0.000         0.000
  Exfiltration Loss ........         0.000         0.000
  Initial Stored Volume ....        95.047       950.479
  Final Stored Volume ......        84.320       843.209
  Continuity Error (%) .....        -0.000
  
  
  *************************
  Highest Continuity Errors
  *************************
  Node N4 (1.92%)
  Node N3 (1.43%)
  Node N2 (1.39%)
  
  
  ***************************
  Time-Step Critical Elements
  ***************************
  None
  
  
  ********************************
  Highest Flow Instability Indexes
  ********************************
  All links are stable.
  
  
  *************************
  Routing Time Step Summary
  *************************
  Minimum Time Step           :    29.50 sec
  Average Time Step           :    29.96 sec
  Maximum Time Step           :    30.00 sec
  Percent in Steady State     :     0.00
  Average Iterations per Step :     2.21
  Percent Not Converging      :     0.55
  
  
  ******************
  Node Depth Summary
  ******************
  
  ---------------------------------------------------------------------------------
                                 Average  Maximum  Maximum  Time of Max    Reported
                                   Depth    Depth      HGL   Occurrence   Max Depth
  Node                 Type       Meters   Meters   Meters  days hr:min      Meters
  ---------------------------------------------------------------------------------
  N1                   JUNCTION     0.28     1.00    21.00     0  00:01        0.98
  N2                   JUNCTION     0.28     0.44    18.44     0  00:49        0.44
  N3                   JUNCTION     0.27     0.43    16.43     0  00:16        0.43
  N4                   JUNCTION     0.27     0.41    14.41     0  03:10        0.41
  out                  OUTFALL      0.00     0.00     0.00     0  00:00        0.00
  T1                   STORAGE      3.00     3.00     3.00     0  00:01        3.00
  T2                   STORAGE      1.95     2.00    13.00     0  00:25        2.00
  T3                   STORAGE    896.19   950.00   950.00     0  00:00      949.88
  
  
  *******************
  Node Inflow Summary
  *******************
  
  -------------------------------------------------------------------------------------------------
                                  Maximum  Maximum                  Lateral       Total        Flow
                                  Lateral    Total  Time of Max      Inflow      Inflow     Balance
                                   Inflow   Inflow   Occurrence      Volume      Volume       Error
  Node                 Type           CMS      CMS  days hr:min    10^6 ltr    10^6 ltr     Percent
  -------------------------------------------------------------------------------------------------
  N1                   JUNCTION     0.000    0.370     0  00:40           0         4.4      -0.262
  N2                   JUNCTION     0.000    0.372     0  00:48           0        4.41       1.407
  N3                   JUNCTION     0.000    0.359     0  00:49           0        4.35       1.449
  N4                   JUNCTION     0.000    0.351     0  00:17           0        4.29       1.959
  out                  OUTFALL      0.000    0.000     0  00:00           0           0       0.000 ltr
  T1                   STORAGE      0.000    5.000     0  00:01           0         108       0.024
  T2                   STORAGE      0.000    0.334     0  00:20           0        4.41       0.867
  T3                   STORAGE      0.000    0.000     0  00:00           0         950      -0.001
  
  
  **********************
  Node Surcharge Summary
  **********************
  
  Surcharging occurs when water rises above the top of the highest conduit.
  ---------------------------------------------------------------------
                                               Max. Height   Min. Depth
                                   Hours       Above Crown    Below Rim
  Node                 Type      Surcharged         Meters       Meters
  ---------------------------------------------------------------------
  N1                   JUNCTION        0.04          0.500        0.000
  
  
  *********************
  Node Flooding Summary
  *********************
  
  Flooding refers to all water that overflows a node, whether it ponds or not.
  --------------------------------------------------------------------------
                                                             Total   Maximum
                                 Maximum   Time of Max       Flood    Ponded
                        Hours       Rate    Occurrence      Volume     Depth
  Node                 Flooded       CMS   days hr:min    10^6 ltr    Meters
  --------------------------------------------------------------------------
  N1                      0.01     0.020      0  00:01       0.001     0.000
  T1                      5.99     4.991      0  05:04     103.374     0.000
  T2                      5.59     0.312      0  03:11       3.974     0.000
  
  
  **********************
  Storage Volume Summary
  **********************
  
  --------------------------------------------------------------------------------------------------
                         Average     Avg  Evap Exfil       Maximum     Max    Time of Max    Maximum
                          Volume    Pcnt  Pcnt  Pcnt        Volume    Pcnt     Occurrence    Outflow
  Storage Unit           1000 m3    Full  Loss  Loss       1000 m3    Full    days hr:min        CMS
  --------------------------------------------------------------------------------------------------
  T1                       0.450     100     0     0         0.450     100       0  00:01      0.370
  T2                       0.390      97     0     0         0.400     100       0  00:25      0.000
  T3                     896.185      90     0     0       950.000      95       0  00:00      5.000
  
  
  ***********************
  Outfall Loading Summary
  ***********************
  
  -----------------------------------------------------------
                         Flow       Avg       Max       Total
                         Freq      Flow      Flow      Volume
  Outfall Node           Pcnt       CMS       CMS    10^6 ltr
  -----------------------------------------------------------
  out                    0.00     0.000     0.000       0.000
  -----------------------------------------------------------
  System                 0.00     0.000     0.000       0.000
  
  
  ********************
  Link Flow Summary
  ********************
  
  -----------------------------------------------------------------------------
                                 Maximum  Time of Max   Maximum    Max/    Max/
                                  |Flow|   Occurrence   |Veloc|    Full    Full
  Link                 Type          CMS  days hr:min     m/sec    Flow   Depth
  -----------------------------------------------------------------------------
  P1                   CONDUIT     0.372     0  00:48      2.33    1.07    0.90
  P2                   CONDUIT     0.359     0  00:49      2.29    1.03    0.85
  P3                   CONDUIT     0.351     0  00:17      2.38    1.01    0.80
  P4                   CONDUIT     0.334     0  00:20      1.91    0.96    0.91
  FP1                  PUMP        0.370     0  00:40              0.37
  FP2                  PUMP        0.000     0  00:00              0.00
  FP3                  PUMP        5.000     0  00:01              5.00
  
  
  ***************************
  Flow Classification Summary
  ***************************
  
  -------------------------------------------------------------------------------------
                      Adjusted    ---------- Fraction of Time in Flow Class ---------- 
                       /Actual         Up    Down  Sub   Sup   Up    Down  Norm  Inlet 
  Conduit               Length    Dry  Dry   Dry   Crit  Crit  Crit  Crit  Ltd   Ctrl  
  -------------------------------------------------------------------------------------
  P1                      1.00   0.00  0.00  0.00  0.17  0.83  0.00  0.00  0.48  0.00
  P2                      1.00   0.00  0.00  0.00  0.06  0.94  0.00  0.00  0.48  0.00
  P3                      1.00   0.00  0.00  0.00  0.05  0.95  0.00  0.00  0.48  0.00
  P4                      1.00   0.00  0.00  0.00  0.95  0.00  0.00  0.04  0.76  0.00
  
  
  *************************
  Conduit Surcharge Summary
  *************************
  
  ----------------------------------------------------------------------------
                                                           Hours        Hours 
                         --------- Hours Full --------   Above Full   Capacity
  Conduit                Both Ends  Upstream  Dnstream   Normal Flow   Limited
  ----------------------------------------------------------------------------
  P1                          0.01      0.01      0.01      0.27         0.01
  P2                          0.01      0.01      0.01      0.12         0.01
  P3                          0.01      0.01      0.01      0.05         0.01
  P4                          0.01      0.01      5.70      0.01         0.01
  
  
  ***************
  Pumping Summary
  ***************
  
  ---------------------------------------------------------------------------------------------------------
                                                  Min       Avg       Max     Total     Power    % Time Off
                        Percent   Number of      Flow      Flow      Flow    Volume     Usage    Pump Curve
  Pump                 Utilized   Start-Ups       CMS       CMS       CMS  10^6 ltr     Kw-hr    Low   High
  ---------------------------------------------------------------------------------------------------------
  FP1                     99.86           1      0.00      0.20      0.37     4.406    207.95    0.0  100.0
  FP2                      0.00           0      0.00      0.00      0.00     0.000      0.00    0.0    0.0
  FP3                    100.00           1      0.00      4.99      5.00   107.867 262295.11    0.0  100.0
  

  Analysis begun on:  Mon Oct  5 09:24:14 2020
  Analysis ended on:  Mon Oct  5 09:24:15 2020
  Total elapsed time: 00:00:01