
  EPA STORM WATER MANAGEMENT MODEL - VERSION 5.1 (Build 5.3.0.dev0)
  --------------------------------------------------------------

  
  *********************************************************
  NOTE: The summary statistics displayed in this report are
  based on results found at every computational time step,  
  not just on results from each reporting time step.
  *********************************************************
  
  ****************
  Analysis Options
  ****************
  Flow Units ............... CMS
  Process Models:
    Rainfall/Runoff ........ NO
    RDII ................... NO
    Snowmelt ............... NO
    Groundwater ............ NO
    Flow Routing ........... YES
    Ponding Allowed ........ NO
    Water Quality .......... YES
  Flow Routing Method ...... DYNWAVE
  Surcharge Method ......... EXTRAN
  Starting Date ............ 12/05/2019 00:00:00
  Ending Date .............. 12/05/2019 03:00:00
  Antecedent Dry Days ...... 0.0
  Report Time Step ......... 00:05:00
  Routing Time Step ........ 60.00 sec
  Variable Time Step ....... YES
  Maximum Trials ........... 8
  Number of Threads ........ 1
  Head Tolerance ........... 0.001500 m
  
  
  **************************        Volume        Volume
  Flow Routing Continuity        hectare-m      10^6 ltr
  **************************     ---------     ---------
  Dry Weather Inflow .......         0.000         0.000
  Wet Weather Inflow .......         0.000         0.000
  Groundwater Inflow .......         0.000         0.000
  RDII Inflow ..............         0.000         0.000
  External Inflow ..........         5.399        53.993
  External Outflow .........         0.618         6.177
  Flooding Loss ............         4.872        48.720
  Evaporation Loss .........         0.000         0.000
  Exfiltration Loss ........         0.000         0.000
  Initial Stored Volume ....         0.000         0.000
  Final Stored Volume ......         0.039         0.394
  Continuity Error (%) .....        -2.402
  
  
  **************************           COD
  Quality Routing Continuity            kg
  **************************    ----------
  Dry Weather Inflow .......         0.000
  Wet Weather Inflow .......         0.000
  Groundwater Inflow .......         0.000
  RDII Inflow ..............         0.000
  External Inflow ..........         0.000
  External Outflow .........         0.000
  Flooding Loss ............         0.000
  Exfiltration Loss ........         0.000
  Mass Reacted .............         0.000
  Initial Stored Mass ......         0.000
  Final Stored Mass ........         0.000
  Continuity Error (%) .....         0.000
  
  
  *************************
  Highest Continuity Errors
  *************************
  Node M2341120 (-8.57%)
  Node M2343123 (-5.24%)
  Node M2334096 (-3.00%)
  Node M2341119 (-1.69%)
  Node M2334097 (-1.19%)
  
  
  ***************************
  Time-Step Critical Elements
  ***************************
  Link L2747 (76.58%)
  Link L2373 (22.68%)
  
  
  ********************************
  Highest Flow Instability Indexes
  ********************************
  Link L2377 (38)
  Link L2747 (14)
  Link L2390 (13)
  Link L2374 (4)
  Link L2746 (4)
  
  
  *************************
  Routing Time Step Summary
  *************************
  Minimum Time Step           :     0.50 sec
  Average Time Step           :     1.36 sec
  Maximum Time Step           :    60.00 sec
  Percent in Steady State     :    -0.00
  Average Iterations per Step :     2.52
  Percent Not Converging      :     3.56
  
  
  ******************
  Node Depth Summary
  ******************
  
  ---------------------------------------------------------------------------------
                                 Average  Maximum  Maximum  Time of Max    Reported
                                   Depth    Depth      HGL   Occurrence   Max Depth
  Node                 Type       Meters   Meters   Meters  days hr:min      Meters
  ---------------------------------------------------------------------------------
  M2334098             JUNCTION     0.43     2.00     2.33     0  00:02        0.60
  M2334097             JUNCTION     0.45     2.00     2.31     0  00:02        0.61
  M2334096             JUNCTION     0.37     2.04     2.34     0  00:02        0.56
  M2343123             JUNCTION     0.43     2.36     2.42     0  00:02        0.81
  M2341119             JUNCTION     0.38     2.51     2.44     0  00:02        0.87
  M2341120             JUNCTION     0.38     2.30     2.07     0  00:02        0.98
  M2341121             JUNCTION     0.39     1.63     1.08     0  00:02        1.12
  M2341060             JUNCTION     0.36     1.52     0.85     0  00:02        1.05
  M2341059             JUNCTION     0.36     1.23     0.32     0  00:02        1.03
  M2341057             JUNCTION     0.38     1.25     0.13     0  00:03        1.09
  M2323042             JUNCTION     0.37     1.20    -0.10     0  00:03        1.09
  M2323041             JUNCTION     0.40     1.18    -0.32     0  00:04        1.11
  M2323040             JUNCTION     0.43     1.14    -0.60     0  00:04        1.13
  M2323038             JUNCTION     0.34     1.29    -0.56     0  00:10        1.16
  M2323036             JUNCTION     0.52     2.85     0.64     0  00:16        1.58
  M2323065             JUNCTION     0.56     3.45     1.04     0  00:08        1.72
  M2323006             JUNCTION     0.56     3.59     0.99     0  00:07        1.78
  M2323143             JUNCTION     0.50     3.07     0.39     0  00:08        1.84
  Renseanlaeg          OUTFALL      0.00     0.00     0.00     0  00:00        0.00
  B2334099PSA256       STORAGE      5.24     5.24     2.80     0  00:01        5.24
  B2323037O398         STORAGE      0.43     1.86    -0.20     0  00:16        1.28
  B2323069             STORAGE      1.17     3.07    -0.72     0  00:09        2.91
  
  
  *******************
  Node Inflow Summary
  *******************
  
  -------------------------------------------------------------------------------------------------
                                  Maximum  Maximum                  Lateral       Total        Flow
                                  Lateral    Total  Time of Max      Inflow      Inflow     Balance
                                   Inflow   Inflow   Occurrence      Volume      Volume       Error
  Node                 Type           CMS      CMS  days hr:min    10^6 ltr    10^6 ltr     Percent
  -------------------------------------------------------------------------------------------------
  M2334098             JUNCTION     0.000    4.594     0  00:03           0        5.27       0.010
  M2334097             JUNCTION     0.000    9.598     0  02:55           0        5.36      -1.177
  M2334096             JUNCTION     0.000    3.645     0  00:03           0        5.38      -2.909
  M2343123             JUNCTION     0.000    3.240     0  00:02           0        5.44      -4.982
  M2341119             JUNCTION     0.000    3.874     0  00:03           0        5.66      -1.665
  M2341120             JUNCTION     0.000    3.875     0  00:03           0        5.76      -7.895
  M2341121             JUNCTION     0.000    8.707     0  00:02           0        6.25       0.220
  M2341060             JUNCTION     0.000    4.428     0  00:02           0        6.24      -1.059
  M2341059             JUNCTION     0.000    5.997     0  00:02           0        6.31       0.176
  M2341057             JUNCTION     0.000    5.188     0  00:03           0        6.29       0.129
  M2323042             JUNCTION     0.000    5.032     0  00:03           0        6.29       0.082
  M2323041             JUNCTION     0.000    4.807     0  00:04           0        6.28       0.067
  M2323040             JUNCTION     0.000    4.500     0  00:04           0        6.28       0.170
  M2323038             JUNCTION     0.000    4.638     0  00:05           0        6.47       0.038
  M2323036             JUNCTION     0.000    4.337     0  00:05           0        6.44      -0.288
  M2323065             JUNCTION     0.000    4.901     0  00:05           0        6.29      -0.068
  M2323006             JUNCTION     0.000    4.687     0  00:06           0        6.33       0.080
  M2323143             JUNCTION     0.000    4.498     0  00:06           0        6.37      -0.033
  Renseanlaeg          OUTFALL      0.000    1.000     0  00:06           0        6.18       0.000
  B2334099PSA256       STORAGE      5.000    5.000     0  00:00          54          54       0.168
  B2323037O398         STORAGE      0.000    4.656     0  00:05           0        6.63      -0.153
  B2323069             STORAGE      0.000    5.175     0  00:06           0        6.33       0.279
  
  
  **********************
  Node Surcharge Summary
  **********************
  
  Surcharging occurs when water rises above the top of the highest conduit.
  ---------------------------------------------------------------------
                                               Max. Height   Min. Depth
                                   Hours       Above Crown    Below Rim
  Node                 Type      Surcharged         Meters       Meters
  ---------------------------------------------------------------------
  M2334098             JUNCTION        0.04          0.400        0.000
  M2334097             JUNCTION        0.03          0.400        0.000
  M2334096             JUNCTION        0.03          0.440        1.110
  M2343123             JUNCTION        0.02          0.764        0.946
  M2341119             JUNCTION        0.02          0.910        0.700
  M2341120             JUNCTION        0.02          0.698        0.722
  M2341121             JUNCTION        0.01          0.027        1.643
  M2323036             JUNCTION        0.01          1.248        0.242
  M2323065             JUNCTION        0.05          1.850        0.000
  M2323006             JUNCTION        0.32          1.990        0.000
  M2323143             JUNCTION        0.35          1.474        1.526
  
  
  *********************
  Node Flooding Summary
  *********************
  
  Flooding refers to all water that overflows a node, whether it ponds or not.
  --------------------------------------------------------------------------
                                                             Total   Maximum
                                 Maximum   Time of Max       Flood    Ponded
                        Hours       Rate    Occurrence      Volume     Depth
  Node                 Flooded       CMS   days hr:min    10^6 ltr    Meters
  --------------------------------------------------------------------------
  M2334098                0.01     1.000      0  00:02       0.016     0.000
  M2334097                0.02     1.675      0  00:02       0.098     0.000
  M2323065                0.01     0.968      0  00:08       0.004     0.000
  M2323006                0.01     1.215      0  00:07       0.001     0.000
  B2334099PSA256          3.00     5.000      0  00:04      48.761     0.000
  
  
  **********************
  Storage Volume Summary
  **********************
  
  --------------------------------------------------------------------------------------------------
                         Average     Avg  Evap Exfil       Maximum     Max    Time of Max    Maximum
                          Volume    Pcnt  Pcnt  Pcnt        Volume    Pcnt     Occurrence    Outflow
  Storage Unit           1000 m3    Full  Loss  Loss       1000 m3    Full    days hr:min        CMS
  --------------------------------------------------------------------------------------------------
  B2334099PSA256           0.034     100     0     0         0.034     100       0  00:01      1.000
  B2323037O398             0.003      15     0     0         0.013      65       0  00:16      4.337
  B2323069                 0.117      21     0     0         0.307      54       0  00:09      1.865
  
  
  ***********************
  Outfall Loading Summary
  ***********************
  
  -------------------------------------------------------------------------
                         Flow       Avg       Max       Total         Total
                         Freq      Flow      Flow      Volume           COD
  Outfall Node           Pcnt       CMS       CMS    10^6 ltr            kg
  -------------------------------------------------------------------------
  Renseanlaeg           59.85     1.000     1.000       6.177         0.000
  -------------------------------------------------------------------------
  System                59.85     1.000     1.000       6.177         0.000
  
  
  ********************
  Link Flow Summary
  ********************
  
  -----------------------------------------------------------------------------
                                 Maximum  Time of Max   Maximum    Max/    Max/
                                  |Flow|   Occurrence   |Veloc|    Full    Full
  Link                 Type          CMS  days hr:min     m/sec    Flow   Depth
  -----------------------------------------------------------------------------
  L2747                CONDUIT     9.598     0  02:55      8.57    1.43    1.00
  L2746                CONDUIT     3.645     0  00:03     11.25    2.39    1.00
  L2745                CONDUIT     3.240     0  00:02      2.61    0.58    1.00
  L2921                CONDUIT     3.874     0  00:03      2.31    1.30    1.00
  L2797                CONDUIT     3.875     0  00:03      2.54    0.93    1.00
  L2798                CONDUIT     8.707     0  00:02      4.63    2.04    0.96
  L2799                CONDUIT     4.428     0  00:02      4.17    1.26    0.98
  L2793                CONDUIT     5.997     0  00:02      3.97    1.22    0.77
  L2792                CONDUIT     5.188     0  00:03      3.60    1.02    0.75
  L2791                CONDUIT     5.032     0  00:03      3.43    1.11    0.74
  L2379                CONDUIT     4.807     0  00:04      3.49    0.99    0.72
  L2378                CONDUIT     4.500     0  00:04      3.13    0.93    0.70
  L2377                CONDUIT     4.638     0  00:05      3.68    1.04    0.68
  L2374                CONDUIT     4.656     0  00:05      4.15    0.38    0.86
  L2373                CONDUIT     4.337     0  00:05      4.27    0.39    1.00
  L6497                CONDUIT     4.901     0  00:05      3.85    1.01    1.00
  L2390                CONDUIT     4.687     0  00:06      3.40    0.97    1.00
  L2354                CONDUIT     4.498     0  00:06      4.94    0.67    1.00
  L2418                CONDUIT     5.175     0  00:06      7.87    0.26    1.00
  P1                   PUMP        1.000     0  00:02              1.00
  P2                   PUMP        1.000     0  00:06              1.00
  
  
  ***************************
  Flow Classification Summary
  ***************************
  
  -------------------------------------------------------------------------------------
                      Adjusted    ---------- Fraction of Time in Flow Class ---------- 
                       /Actual         Up    Down  Sub   Sup   Up    Down  Norm  Inlet 
  Conduit               Length    Dry  Dry   Dry   Crit  Crit  Crit  Crit  Ltd   Ctrl  
  -------------------------------------------------------------------------------------
  L2747                   1.00   0.00  0.01  0.00  0.95  0.04  0.00  0.00  0.06  0.00
  L2746                   1.00   0.00  0.00  0.00  0.89  0.11  0.00  0.00  0.14  0.00
  L2745                   1.00   0.00  0.00  0.00  0.86  0.14  0.00  0.00  0.54  0.00
  L2921                   1.00   0.00  0.00  0.00  0.91  0.09  0.00  0.00  0.50  0.00
  L2797                   1.00   0.00  0.00  0.00  0.89  0.11  0.00  0.00  0.55  0.00
  L2798                   1.00   0.00  0.00  0.00  0.98  0.02  0.00  0.00  0.60  0.00
  L2799                   1.00   0.00  0.00  0.00  0.99  0.01  0.00  0.00  0.03  0.00
  L2793                   1.00   0.00  0.00  0.00  0.67  0.33  0.00  0.00  0.66  0.00
  L2792                   1.00   0.00  0.00  0.00  0.88  0.12  0.00  0.00  0.55  0.00
  L2791                   1.00   0.00  0.00  0.00  0.93  0.07  0.00  0.00  0.57  0.00
  L2379                   1.00   0.00  0.00  0.00  0.84  0.16  0.00  0.00  0.60  0.00
  L2378                   1.00   0.00  0.00  0.00  0.88  0.12  0.00  0.00  0.56  0.00
  L2377                   1.00   0.00  0.00  0.00  0.18  0.82  0.00  0.00  0.14  0.00
  L2374                   1.00   0.00  0.00  0.00  0.17  0.83  0.00  0.00  0.20  0.00
  L2373                   1.00   0.01  0.00  0.00  0.23  0.77  0.00  0.00  0.01  0.00
  L6497                   1.00   0.01  0.00  0.00  0.82  0.17  0.00  0.00  0.53  0.00
  L2390                   1.00   0.01  0.00  0.00  0.26  0.73  0.00  0.00  0.43  0.00
  L2354                   1.00   0.01  0.00  0.00  0.25  0.74  0.00  0.00  0.75  0.00
  L2418                   1.00   0.02  0.00  0.00  0.79  0.19  0.00  0.00  0.75  0.00
  
  
  *************************
  Conduit Surcharge Summary
  *************************
  
  ----------------------------------------------------------------------------
                                                           Hours        Hours 
                         --------- Hours Full --------   Above Full   Capacity
  Conduit                Both Ends  Upstream  Dnstream   Normal Flow   Limited
  ----------------------------------------------------------------------------
  L2747                       0.03      0.03      0.03      0.01         0.01
  L2746                       0.03      0.03      0.03      0.03         0.01
  L2745                       0.02      0.03      0.02      0.01         0.01
  L2921                       0.02      0.03      0.02      0.01         0.01
  L2797                       0.02      0.02      0.02      0.01         0.02
  L2798                       0.01      0.02      0.01      0.02         0.01
  L2799                       0.01      0.01      0.01      0.04         0.01
  L2793                       0.01      0.01      0.01      0.01         0.01
  L2792                       0.01      0.01      0.01      0.01         0.01
  L2791                       0.01      0.01      0.01      0.01         0.01
  L2377                       0.01      0.01      0.01      0.01         0.01
  L2374                       0.01      0.01      0.01      0.01         0.01
  L2373                       0.01      0.01      0.01      0.01         0.01
  L6497                       0.01      0.01      0.05      0.01         0.01
  L2390                       0.05      0.05      0.32      0.01         0.01
  L2354                       0.32      0.32      0.35      0.01         0.01
  L2418                       0.35      0.35      0.62      0.01         0.01
  
  
  ***************
  Pumping Summary
  ***************
  
  ---------------------------------------------------------------------------------------------------------
                                                  Min       Avg       Max     Total     Power    % Time Off
                        Percent   Number of      Flow      Flow      Flow    Volume     Usage    Pump Curve
  Pump                 Utilized   Start-Ups       CMS       CMS       CMS  10^6 ltr     Kw-hr    Low   High
  ---------------------------------------------------------------------------------------------------------
  P1                      48.86          19      0.00      1.00      1.00     5.277     27.13    0.0  100.0
  P2                      57.19          15      0.00      1.00      1.00     6.176     39.51    0.0  100.0
  
  
  ***************************
  Link Pollutant Load Summary
  ***************************
  
  ----------------------------------
                                 COD
  Link                            kg
  ----------------------------------
  L2747                        0.000
  L2746                        0.000
  L2745                        0.000
  L2921                        0.000
  L2797                        0.000
  L2798                        0.000
  L2799                        0.000
  L2793                        0.000
  L2792                        0.000
  L2791                        0.000
  L2379                        0.000
  L2378                        0.000
  L2377                        0.000
  L2374                        0.000
  L2373                        0.000
  L6497                        0.000
  L2390                        0.000
  L2354                        0.000
  L2418                        0.000
  P1                           0.000
  P2                           0.000
  

  Analysis begun on:  Sun Nov 22 22:51:17 2020
  Analysis ended on:  Sun Nov 22 22:51:23 2020
  Total elapsed time: 00:00:06