
  EPA STORM WATER MANAGEMENT MODEL - VERSION 5.1 (Build 5.3.0.dev0)
  --------------------------------------------------------------

  
  *********************************************************
  NOTE: The summary statistics displayed in this report are
  based on results found at every computational time step,  
  not just on results from each reporting time step.
  *********************************************************
  
  ****************
  Analysis Options
  ****************
  Flow Units ............... CMS
  Process Models:
    Rainfall/Runoff ........ NO
    RDII ................... NO
    Snowmelt ............... NO
    Groundwater ............ NO
    Flow Routing ........... YES
    Ponding Allowed ........ NO
    Water Quality .......... YES
  Flow Routing Method ...... KINWAVE
  Starting Date ............ 12/05/2019 00:00:00
  Ending Date .............. 12/05/2019 03:00:00
  Antecedent Dry Days ...... 0.0
  Report Time Step ......... 00:05:00
  Routing Time Step ........ 60.00 sec
  
  
  **************************        Volume        Volume
  Flow Routing Continuity        hectare-m      10^6 ltr
  **************************     ---------     ---------
  Dry Weather Inflow .......         0.000         0.000
  Wet Weather Inflow .......         0.000         0.000
  Groundwater Inflow .......         0.000         0.000
  RDII Inflow ..............         0.000         0.000
  External Inflow ..........         5.384        53.845
  External Outflow .........         0.020         0.202
  Flooding Loss ............         5.330        53.300
  Evaporation Loss .........         0.000         0.000
  Exfiltration Loss ........         0.000         0.000
  Initial Stored Volume ....         0.000         0.000
  Final Stored Volume ......         0.018         0.184
  Continuity Error (%) .....         0.293
  
  
  **************************           COD
  Quality Routing Continuity            kg
  **************************    ----------
  Dry Weather Inflow .......         0.000
  Wet Weather Inflow .......         0.000
  Groundwater Inflow .......         0.000
  RDII Inflow ..............         0.000
  External Inflow ..........         0.000
  External Outflow .........         0.000
  Flooding Loss ............         0.000
  Exfiltration Loss ........         0.000
  Mass Reacted .............         0.000
  Initial Stored Mass ......         0.000
  Final Stored Mass ........         0.000
  Continuity Error (%) .....         0.000
  
  
  ********************************
  Highest Flow Instability Indexes
  ********************************
  Link L2373 (44)
  Link L6497 (39)
  Link L2747 (30)
  Link L2390 (26)
  Link L2746 (22)
  
  
  *************************
  Routing Time Step Summary
  *************************
  Minimum Time Step           :    60.00 sec
  Average Time Step           :    60.00 sec
  Maximum Time Step           :    60.00 sec
  Percent in Steady State     :     0.00
  Average Iterations per Step :     1.61
  Percent Not Converging      :     0.00
  
  
  ******************
  Node Depth Summary
  ******************
  
  ---------------------------------------------------------------------------------
                                 Average  Maximum  Maximum  Time of Max    Reported
                                   Depth    Depth      HGL   Occurrence   Max Depth
  Node                 Type       Meters   Meters   Meters  days hr:min      Meters
  ---------------------------------------------------------------------------------
  M2334098             JUNCTION     0.04     0.16     0.49     0  00:27        0.16
  M2334097             JUNCTION     0.08     0.34     0.65     0  00:28        0.34
  M2334096             JUNCTION     0.09     0.33     0.63     0  02:50        0.33
  M2343123             JUNCTION     0.06     0.22     0.28     0  02:53        0.22
  M2341119             JUNCTION     0.06     0.22     0.16     0  02:58        0.22
  M2341120             JUNCTION     0.06     0.20    -0.02     0  02:59        0.20
  M2341121             JUNCTION     0.07     0.22    -0.33     0  00:43        0.22
  M2341060             JUNCTION     0.07     0.22    -0.45     0  00:44        0.22
  M2341059             JUNCTION     0.06     0.19    -0.72     0  00:45        0.19
  M2341057             JUNCTION     0.06     0.19    -0.92     0  00:46        0.19
  M2323042             JUNCTION     0.06     0.19    -1.10     0  00:47        0.19
  M2323041             JUNCTION     0.05     0.18    -1.32     0  00:48        0.18
  M2323040             JUNCTION     0.05     0.19    -1.55     0  00:50        0.19
  M2323038             JUNCTION     0.05     0.19    -1.66     0  00:50        0.19
  M2323036             JUNCTION     0.05     0.20    -2.01     0  00:51        0.19
  M2323065             JUNCTION     0.05     0.19    -2.22     0  00:51        0.19
  M2323006             JUNCTION     0.05     0.19    -2.41     0  00:52        0.19
  M2323143             JUNCTION     0.04     0.16    -2.52     0  00:52        0.16
  Renseanlaeg          OUTFALL      0.00     0.00     0.00     0  00:00        0.00
  B2334099PSA256       STORAGE      5.24     5.24     2.80     0  00:37        5.24
  B2323037O398         STORAGE      0.04     0.24    -1.82     0  00:53        0.20
  B2323069             STORAGE      0.80     4.91     1.12     0  01:03        4.84
  
  
  *******************
  Node Inflow Summary
  *******************
  
  -------------------------------------------------------------------------------------------------
                                  Maximum  Maximum                  Lateral       Total        Flow
                                  Lateral    Total  Time of Max      Inflow      Inflow     Balance
                                   Inflow   Inflow   Occurrence      Volume      Volume       Error
  Node                 Type           CMS      CMS  days hr:min    10^6 ltr    10^6 ltr     Percent
  -------------------------------------------------------------------------------------------------
  M2334098             JUNCTION     0.000    0.143     0  00:27           0        0.36       0.000
  M2334097             JUNCTION     0.000    0.149     0  00:28           0        0.36       0.000
  M2334096             JUNCTION     0.000    0.143     0  02:50           0       0.355       0.000
  M2343123             JUNCTION     0.000    0.143     0  02:53           0       0.347       0.000
  M2341119             JUNCTION     0.000    0.143     0  02:58           0       0.334       0.000
  M2341120             JUNCTION     0.000    0.143     0  02:59           0       0.322      -0.000
  M2341121             JUNCTION     0.000    0.143     0  00:43           0       0.302       0.000
  M2341060             JUNCTION     0.000    0.142     0  00:44           0       0.287       0.000
  M2341059             JUNCTION     0.000    0.142     0  00:45           0       0.273       0.000
  M2341057             JUNCTION     0.000    0.141     0  00:46           0       0.262       0.000
  M2323042             JUNCTION     0.000    0.140     0  00:47           0        0.25       0.000
  M2323041             JUNCTION     0.000    0.137     0  00:48           0       0.239       0.000
  M2323040             JUNCTION     0.000    0.133     0  00:50           0       0.229       0.000
  M2323038             JUNCTION     0.000    0.133     0  00:50           0       0.224       0.000
  M2323036             JUNCTION     0.000    0.161     0  00:51           0       0.211       0.000
  M2323065             JUNCTION     0.000    0.148     0  00:51           0       0.206       0.000
  M2323006             JUNCTION     0.000    0.147     0  00:52           0       0.203       0.000
  M2323143             JUNCTION     0.000    0.147     0  00:52           0       0.203       0.000
  Renseanlaeg          OUTFALL      0.000    0.043     0  00:48           0       0.202       0.000
  B2334099PSA256       STORAGE      5.000    5.000     0  00:01        53.8        53.8       0.279
  B2323037O398         STORAGE      0.000    0.133     0  00:50           0       0.223       4.904
  B2323069             STORAGE      0.000    0.147     0  00:52           0       0.202      -1.004
  
  
  *********************
  Node Flooding Summary
  *********************
  
  Flooding refers to all water that overflows a node, whether it ponds or not.
  --------------------------------------------------------------------------
                                                             Total   Maximum
                                 Maximum   Time of Max       Flood    Ponded
                        Hours       Rate    Occurrence      Volume    Volume
  Node                 Flooded       CMS   days hr:min    10^6 ltr   1000 m3
  --------------------------------------------------------------------------
  B2334099PSA256          3.00     5.000      0  00:02      53.450     0.000
  
  
  **********************
  Storage Volume Summary
  **********************
  
  --------------------------------------------------------------------------------------------------
                         Average     Avg  Evap Exfil       Maximum     Max    Time of Max    Maximum
                          Volume    Pcnt  Pcnt  Pcnt        Volume    Pcnt     Occurrence    Outflow
  Storage Unit           1000 m3    Full  Loss  Loss       1000 m3    Full    days hr:min        CMS
  --------------------------------------------------------------------------------------------------
  B2334099PSA256           0.034     100     0     0         0.034     100       0  00:01      0.143
  B2323037O398             0.000       1     0     0         0.002      10       0  00:50      0.165
  B2323069                 0.008      14     0     0         0.049      86       0  01:03      0.043
  
  
  ***********************
  Outfall Loading Summary
  ***********************
  
  -------------------------------------------------------------------------
                         Flow       Avg       Max       Total         Total
                         Freq      Flow      Flow      Volume           COD
  Outfall Node           Pcnt       CMS       CMS    10^6 ltr            kg
  -------------------------------------------------------------------------
  Renseanlaeg           75.00     0.025     0.043       0.202         0.000
  -------------------------------------------------------------------------
  System                75.00     0.025     0.043       0.202         0.000
  
  
  ********************
  Link Flow Summary
  ********************
  
  -----------------------------------------------------------------------------
                                 Maximum  Time of Max   Maximum    Max/    Max/
                                  |Flow|   Occurrence   |Veloc|    Full    Full
  Link                 Type          CMS  days hr:min     m/sec    Flow   Depth
  -----------------------------------------------------------------------------
  L2747                CONDUIT     0.149     0  00:28      1.77    0.02    0.10
  L2746                CONDUIT     0.143     0  02:50      0.96    0.09    0.21
  L2745                CONDUIT     0.143     0  02:53      1.50    0.03    0.11
  L2921                CONDUIT     0.143     0  02:58      1.08    0.05    0.15
  L2797                CONDUIT     0.143     0  02:59      1.07    0.03    0.13
  L2798                CONDUIT     0.143     0  00:43      1.16    0.03    0.12
  L2799                CONDUIT     0.142     0  00:44      0.91    0.04    0.14
  L2793                CONDUIT     0.142     0  00:45      1.10    0.03    0.12
  L2792                CONDUIT     0.141     0  00:46      1.12    0.03    0.11
  L2791                CONDUIT     0.140     0  00:47      1.04    0.03    0.12
  L2379                CONDUIT     0.137     0  00:48      1.08    0.03    0.12
  L2378                CONDUIT     0.133     0  00:50      1.08    0.03    0.11
  L2377                CONDUIT     0.133     0  00:50      1.00    0.03    0.12
  L2374                CONDUIT     0.133     0  00:50      2.00    0.01    0.07
  L2373                CONDUIT     0.161     0  00:51      1.96    0.01    0.08
  L6497                CONDUIT     0.148     0  00:51      1.43    0.03    0.12
  L2390                CONDUIT     0.147     0  00:52      1.21    0.03    0.12
  L2354                CONDUIT     0.147     0  00:52      1.37    0.02    0.10
  L2418                CONDUIT     0.147     0  00:52      2.92    0.01    0.06
  P1                   PUMP        0.143     0  00:27              0.14
  P2                   PUMP        0.043     0  00:48              0.04
  
  
  *************************
  Conduit Surcharge Summary
  *************************
  
  No conduits were surcharged.
  
  
  ***************
  Pumping Summary
  ***************
  
  ---------------------------------------------------------------------------------------------------------
                                                  Min       Avg       Max     Total     Power    % Time Off
                        Percent   Number of      Flow      Flow      Flow    Volume     Usage    Pump Curve
  Pump                 Utilized   Start-Ups       CMS       CMS       CMS  10^6 ltr     Kw-hr    Low   High
  ---------------------------------------------------------------------------------------------------------
  P1                      23.33           4      0.00      0.14      0.14     0.360      2.26    0.0  100.0
  P2                      75.00           1      0.00      0.03      0.04     0.203      1.27    0.0   53.3
  
  
  ***************************
  Link Pollutant Load Summary
  ***************************
  
  ----------------------------------
                                 COD
  Link                            kg
  ----------------------------------
  L2747                        0.000
  L2746                        0.000
  L2745                        0.000
  L2921                        0.000
  L2797                        0.000
  L2798                        0.000
  L2799                        0.000
  L2793                        0.000
  L2792                        0.000
  L2791                        0.000
  L2379                        0.000
  L2378                        0.000
  L2377                        0.000
  L2374                        0.000
  L2373                        0.000
  L6497                        0.000
  L2390                        0.000
  L2354                        0.000
  L2418                        0.000
  P1                           0.000
  P2                           0.000
  

  Analysis begun on:  Mon Oct 19 11:18:19 2020
  Analysis ended on:  Mon Oct 19 11:18:20 2020
  Total elapsed time: 00:00:01